src/test/resources/sareferences/case1888rte.xiidm
<?xml version="1.0" encoding="UTF-8"?>
<iidm:network xmlns:iidm="http://www.powsybl.org/schema/iidm/1_8" xmlns:slt="http://www.powsybl.org/schema/iidm/ext/slack_terminal/1_5" id="case1888rte" caseDate="2023-01-03T16:15:55.272+01:00" forecastDistance="0" sourceFormat="MATPOWER" minimumValidationLevel="STEADY_STATE_HYPOTHESIS">
    <iidm:substation id="SUB-1">
        <iidm:voltageLevel id="VL-1" nominalV="1.0" lowVoltageLimit="0.888889" highVoltageLimit="1.08889" topologyKind="BUS_BREAKER">
            <iidm:busBreakerTopology>
                <iidm:bus id="BUS-1" v="1.03149333" angle="-43.4924134"/>
            </iidm:busBreakerTopology>
            <iidm:load id="LOAD-1" loadType="UNDEFINED" p0="5.8" q0="-5.8" bus="BUS-1" connectableBus="BUS-1"/>
        </iidm:voltageLevel>
    </iidm:substation>
    <iidm:substation id="SUB-2">
        <iidm:voltageLevel id="VL-2" nominalV="1.0" lowVoltageLimit="1.04841" highVoltageLimit="1.10263" topologyKind="BUS_BREAKER">
            <iidm:busBreakerTopology>
                <iidm:bus id="BUS-2" v="1.05203485" angle="-1.69989632"/>
            </iidm:busBreakerTopology>
        </iidm:voltageLevel>
    </iidm:substation>
    <iidm:substation id="SUB-3">
        <iidm:voltageLevel id="VL-3" nominalV="1.0" lowVoltageLimit="1.00444" highVoltageLimit="1.08444" topologyKind="BUS_BREAKER">
            <iidm:busBreakerTopology>
                <iidm:bus id="BUS-3" v="1.0448381" angle="-18.2673882"/>
            </iidm:busBreakerTopology>
            <iidm:load id="LOAD-3" loadType="UNDEFINED" p0="142.5" q0="-13.4" bus="BUS-3" connectableBus="BUS-3"/>
        </iidm:voltageLevel>
    </iidm:substation>
    <iidm:substation id="SUB-4">
        <iidm:voltageLevel id="VL-4" nominalV="1.0" lowVoltageLimit="1.03601" highVoltageLimit="1.08889" topologyKind="BUS_BREAKER">
            <iidm:busBreakerTopology>
                <iidm:bus id="BUS-4" v="1.06460516" angle="-20.5923155"/>
                <iidm:bus id="BUS-6" v="1.06056279" angle="-25.2851419"/>
                <iidm:bus id="BUS-1576" v="1.06372051" angle="-25.949893"/>
            </iidm:busBreakerTopology>
            <iidm:load id="LOAD-6" loadType="UNDEFINED" p0="40.2" q0="4.0" bus="BUS-6" connectableBus="BUS-6"/>
        </iidm:voltageLevel>
        <iidm:twoWindingsTransformer id="TWT-4-6" r="3.5560000000000005E-5" x="0.00120296" g="0.0" b="0.0" ratedU1="0.978474" ratedU2="1.0" bus1="BUS-4" connectableBus1="BUS-4" voltageLevelId1="VL-4" bus2="BUS-6" connectableBus2="BUS-6" voltageLevelId2="VL-4"/>
        <iidm:twoWindingsTransformer id="TWT-6-1576" r="1.8000000000000001E-6" x="-6.163E-5" g="0.0" b="0.0" ratedU1="0.999001" ratedU2="1.0" bus1="BUS-6" connectableBus1="BUS-6" voltageLevelId1="VL-4" bus2="BUS-1576" connectableBus2="BUS-1576" voltageLevelId2="VL-4">
            <iidm:apparentPowerLimits1 permanentLimit="1186.0">
                <iidm:temporaryLimit name="RateB" acceptableDuration="1200" value="1186.0"/>
                <iidm:temporaryLimit name="RateC" acceptableDuration="60" value="1186.0"/>
            </iidm:apparentPowerLimits1>
            <iidm:apparentPowerLimits2 permanentLimit="1186.0">
                <iidm:temporaryLimit name="RateB" acceptableDuration="1200" value="1186.0"/>
                <iidm:temporaryLimit name="RateC" acceptableDuration="60" value="1186.0"/>
            </iidm:apparentPowerLimits2>
        </iidm:twoWindingsTransformer>
    </iidm:substation>
    <iidm:substation id="SUB-5">
        <iidm:voltageLevel id="VL-5" nominalV="1.0" lowVoltageLimit="1.02519" highVoltageLimit="1.08889" topologyKind="BUS_BREAKER">
            <iidm:busBreakerTopology>
                <iidm:bus id="BUS-5" v="1.06160466" angle="-24.974129"/>
                <iidm:bus id="BUS-1599" v="1.06487539" angle="-25.5606112"/>
            </iidm:busBreakerTopology>
            <iidm:load id="LOAD-5" loadType="UNDEFINED" p0="32.8" q0="-5.3" bus="BUS-5" connectableBus="BUS-5"/>
        </iidm:voltageLevel>
        <iidm:twoWindingsTransformer id="TWT-5-1599" r="1.8000000000000001E-6" x="-6.163E-5" g="0.0" b="0.0" ratedU1="0.999001" ratedU2="1.0" bus1="BUS-5" connectableBus1="BUS-5" voltageLevelId1="VL-5" bus2="BUS-1599" connectableBus2="BUS-1599" voltageLevelId2="VL-5">
            <iidm:apparentPowerLimits1 permanentLimit="1188.0">
                <iidm:temporaryLimit name="RateB" acceptableDuration="1200" value="1188.0"/>
                <iidm:temporaryLimit name="RateC" acceptableDuration="60" value="1188.0"/>
            </iidm:apparentPowerLimits1>
            <iidm:apparentPowerLimits2 permanentLimit="1188.0">
                <iidm:temporaryLimit name="RateB" acceptableDuration="1200" value="1188.0"/>
                <iidm:temporaryLimit name="RateC" acceptableDuration="60" value="1188.0"/>
            </iidm:apparentPowerLimits2>
        </iidm:twoWindingsTransformer>
    </iidm:substation>
    <iidm:substation id="SUB-7">
        <iidm:voltageLevel id="VL-7" nominalV="1.0" lowVoltageLimit="1.03947" highVoltageLimit="1.10526" topologyKind="BUS_BREAKER">
            <iidm:busBreakerTopology>
                <iidm:bus id="BUS-7" v="1.05380777" angle="-21.4555758"/>
            </iidm:busBreakerTopology>
        </iidm:voltageLevel>
    </iidm:substation>
    <iidm:substation id="SUB-8">
        <iidm:voltageLevel id="VL-8" nominalV="1.0" lowVoltageLimit="1.03947" highVoltageLimit="1.10526" topologyKind="BUS_BREAKER">
            <iidm:busBreakerTopology>
                <iidm:bus id="BUS-8" v="1.05708339" angle="-22.5908652"/>
            </iidm:busBreakerTopology>
        </iidm:voltageLevel>
    </iidm:substation>
    <iidm:substation id="SUB-9">
        <iidm:voltageLevel id="VL-9" nominalV="1.0" lowVoltageLimit="1.00444" highVoltageLimit="1.09035" topologyKind="BUS_BREAKER">
            <iidm:busBreakerTopology>
                <iidm:bus id="BUS-9" v="1.04785952" angle="-36.52218"/>
            </iidm:busBreakerTopology>
        </iidm:voltageLevel>
    </iidm:substation>
    <iidm:substation id="SUB-10">
        <iidm:voltageLevel id="VL-10" nominalV="1.0" lowVoltageLimit="0.933333" highVoltageLimit="1.08889" topologyKind="BUS_BREAKER">
            <iidm:busBreakerTopology>
                <iidm:bus id="BUS-10" v="1.04436458" angle="-29.2139973"/>
            </iidm:busBreakerTopology>
            <iidm:load id="LOAD-10" loadType="UNDEFINED" p0="148.8" q0="14.9" bus="BUS-10" connectableBus="BUS-10"/>
        </iidm:voltageLevel>
    </iidm:substation>
    <iidm:substation id="SUB-11">
        <iidm:voltageLevel id="VL-11" nominalV="1.0" lowVoltageLimit="1.00444" highVoltageLimit="1.08889" topologyKind="BUS_BREAKER">
            <iidm:busBreakerTopology>
                <iidm:bus id="BUS-11" v="1.04319498" angle="-40.8700924"/>
            </iidm:busBreakerTopology>
            <iidm:load id="LOAD-11" loadType="UNDEFINED" p0="25.6" q0="5.0" bus="BUS-11" connectableBus="BUS-11"/>
        </iidm:voltageLevel>
    </iidm:substation>
    <iidm:substation id="SUB-12">
        <iidm:voltageLevel id="VL-12" nominalV="1.0" lowVoltageLimit="1.00444" highVoltageLimit="1.08889" topologyKind="BUS_BREAKER">
            <iidm:busBreakerTopology>
                <iidm:bus id="BUS-12" v="1.02281295" angle="-40.3898303"/>
            </iidm:busBreakerTopology>
            <iidm:load id="LOAD-12" loadType="UNDEFINED" p0="39.1" q0="8.7" bus="BUS-12" connectableBus="BUS-12"/>
        </iidm:voltageLevel>
    </iidm:substation>
    <iidm:substation id="SUB-13">
        <iidm:voltageLevel id="VL-13" nominalV="1.0" lowVoltageLimit="1.00444" highVoltageLimit="1.08889" topologyKind="BUS_BREAKER">
            <iidm:busBreakerTopology>
                <iidm:bus id="BUS-13" v="1.04317979" angle="-40.8672304"/>
            </iidm:busBreakerTopology>
            <iidm:load id="LOAD-13" loadType="UNDEFINED" p0="70.5" q0="17.2" bus="BUS-13" connectableBus="BUS-13"/>
        </iidm:voltageLevel>
    </iidm:substation>
    <iidm:substation id="SUB-14">
        <iidm:voltageLevel id="VL-14" nominalV="1.0" lowVoltageLimit="0.95" highVoltageLimit="1.08252" topologyKind="BUS_BREAKER">
            <iidm:busBreakerTopology>
                <iidm:bus id="BUS-14" v="1.02894304" angle="-42.5999043"/>
            </iidm:busBreakerTopology>
            <iidm:generator id="GEN-14" energySource="OTHER" minP="5.52" maxP="27.6" voltageRegulatorOn="true" targetP="2.38" targetV="1.029" targetQ="0.0" bus="BUS-14" connectableBus="BUS-14">
                <iidm:minMaxReactiveLimits minQ="0.0" maxQ="0.0"/>
            </iidm:generator>
            <iidm:generator id="GEN-14#0" energySource="OTHER" minP="4.8" maxP="24.0" voltageRegulatorOn="true" targetP="0.64" targetV="1.029" targetQ="0.0" bus="BUS-14" connectableBus="BUS-14">
                <iidm:minMaxReactiveLimits minQ="0.0" maxQ="0.0"/>
            </iidm:generator>
            <iidm:load id="LOAD-14" loadType="UNDEFINED" p0="36.0" q0="-4.2" bus="BUS-14" connectableBus="BUS-14"/>
        </iidm:voltageLevel>
    </iidm:substation>
    <iidm:substation id="SUB-15">
        <iidm:voltageLevel id="VL-15" nominalV="1.0" lowVoltageLimit="1.00444" highVoltageLimit="1.05" topologyKind="BUS_BREAKER">
            <iidm:busBreakerTopology>
                <iidm:bus id="BUS-15" v="1.05264309" angle="-32.8339736"/>
                <iidm:bus id="BUS-1678" v="0.957" angle="-29.2409759"/>
            </iidm:busBreakerTopology>
            <iidm:generator id="GEN-1678" energySource="OTHER" minP="8.5" maxP="95.0" voltageRegulatorOn="true" targetP="91.0" targetV="0.957" targetQ="-0.46" bus="BUS-1678" connectableBus="BUS-1678">
                <iidm:minMaxReactiveLimits minQ="-61.4" maxQ="104.12"/>
            </iidm:generator>
            <iidm:load id="LOAD-1678" loadType="UNDEFINED" p0="3.5" q0="2.2" bus="BUS-1678" connectableBus="BUS-1678"/>
        </iidm:voltageLevel>
        <iidm:twoWindingsTransformer id="TWT-15-1678" r="0.0" x="6.579E-4" g="0.0" b="0.0" ratedU1="1.096667" ratedU2="1.0" bus1="BUS-15" connectableBus1="BUS-15" voltageLevelId1="VL-15" bus2="BUS-1678" connectableBus2="BUS-1678" voltageLevelId2="VL-15"/>
    </iidm:substation>
    <iidm:substation id="SUB-16">
        <iidm:voltageLevel id="VL-16" nominalV="1.0" lowVoltageLimit="1.00444" highVoltageLimit="1.05" topologyKind="BUS_BREAKER">
            <iidm:busBreakerTopology>
                <iidm:bus id="BUS-16" v="1.05264349" angle="-32.8339765"/>
                <iidm:bus id="BUS-1679" v="0.957" angle="-29.2409801"/>
            </iidm:busBreakerTopology>
            <iidm:generator id="GEN-1679" energySource="OTHER" minP="8.5" maxP="95.0" voltageRegulatorOn="true" targetP="91.0" targetV="0.957" targetQ="-0.45" bus="BUS-1679" connectableBus="BUS-1679">
                <iidm:minMaxReactiveLimits minQ="-61.58" maxQ="103.94"/>
            </iidm:generator>
            <iidm:load id="LOAD-1679" loadType="UNDEFINED" p0="3.5" q0="2.2" bus="BUS-1679" connectableBus="BUS-1679"/>
        </iidm:voltageLevel>
        <iidm:twoWindingsTransformer id="TWT-16-1679" r="0.0" x="6.579E-4" g="0.0" b="0.0" ratedU1="1.096667" ratedU2="1.0" bus1="BUS-16" connectableBus1="BUS-16" voltageLevelId1="VL-16" bus2="BUS-1679" connectableBus2="BUS-1679" voltageLevelId2="VL-16"/>
    </iidm:substation>
    <iidm:substation id="SUB-17">
        <iidm:voltageLevel id="VL-17" nominalV="1.0" lowVoltageLimit="0.888889" highVoltageLimit="1.08889" topologyKind="BUS_BREAKER">
            <iidm:busBreakerTopology>
                <iidm:bus id="BUS-17" v="1.02901493" angle="-42.627265"/>
            </iidm:busBreakerTopology>
            <iidm:load id="LOAD-17" loadType="UNDEFINED" p0="23.7" q0="-12.4" bus="BUS-17" connectableBus="BUS-17"/>
        </iidm:voltageLevel>
    </iidm:substation>
    <iidm:substation id="SUB-18">
        <iidm:voltageLevel id="VL-18" nominalV="1.0" lowVoltageLimit="0.986667" highVoltageLimit="1.09633" topologyKind="BUS_BREAKER">
            <iidm:busBreakerTopology>
                <iidm:bus id="BUS-18" v="1.03827721" angle="-34.821698"/>
            </iidm:busBreakerTopology>
            <iidm:load id="LOAD-18" loadType="UNDEFINED" p0="5.9" q0="-4.8" bus="BUS-18" connectableBus="BUS-18"/>
        </iidm:voltageLevel>
    </iidm:substation>
    <iidm:substation id="SUB-19">
        <iidm:voltageLevel id="VL-19" nominalV="1.0" lowVoltageLimit="1.00444" highVoltageLimit="1.08889" topologyKind="BUS_BREAKER">
            <iidm:busBreakerTopology>
                <iidm:bus id="BUS-19" v="1.03589153" angle="-40.9750755"/>
            </iidm:busBreakerTopology>
            <iidm:load id="LOAD-19" loadType="UNDEFINED" p0="34.0" q0="3.7" bus="BUS-19" connectableBus="BUS-19"/>
        </iidm:voltageLevel>
    </iidm:substation>
    <iidm:substation id="SUB-20">
        <iidm:voltageLevel id="VL-20" nominalV="1.0" lowVoltageLimit="1.00444" highVoltageLimit="1.08889" topologyKind="BUS_BREAKER">
            <iidm:busBreakerTopology>
                <iidm:bus id="BUS-20" v="1.03591814" angle="-40.9727768"/>
            </iidm:busBreakerTopology>
            <iidm:load id="LOAD-20" loadType="UNDEFINED" p0="6.9" q0="0.8" bus="BUS-20" connectableBus="BUS-20"/>
        </iidm:voltageLevel>
    </iidm:substation>
    <iidm:substation id="SUB-21">
        <iidm:voltageLevel id="VL-21" nominalV="1.0" lowVoltageLimit="1.00444" highVoltageLimit="1.08889" topologyKind="BUS_BREAKER">
            <iidm:busBreakerTopology>
                <iidm:bus id="BUS-21" v="1.04563856" angle="-37.729861"/>
            </iidm:busBreakerTopology>
            <iidm:load id="LOAD-21" loadType="UNDEFINED" p0="9.2" q0="-29.1" bus="BUS-21" connectableBus="BUS-21"/>
        </iidm:voltageLevel>
    </iidm:substation>
    <iidm:substation id="SUB-22">
        <iidm:voltageLevel id="VL-22" nominalV="1.0" lowVoltageLimit="0.986667" highVoltageLimit="1.08889" topologyKind="BUS_BREAKER">
            <iidm:busBreakerTopology>
                <iidm:bus id="BUS-22" v="1.04526149" angle="-38.013764"/>
            </iidm:busBreakerTopology>
            <iidm:load id="LOAD-22" loadType="UNDEFINED" p0="67.7" q0="-3.6" bus="BUS-22" connectableBus="BUS-22"/>
        </iidm:voltageLevel>
    </iidm:substation>
    <iidm:substation id="SUB-23">
        <iidm:voltageLevel id="VL-23" nominalV="1.0" lowVoltageLimit="0.888889" highVoltageLimit="1.08889" topologyKind="BUS_BREAKER">
            <iidm:busBreakerTopology>
                <iidm:bus id="BUS-23" v="1.02132076" angle="-46.8550416"/>
            </iidm:busBreakerTopology>
            <iidm:load id="LOAD-23" loadType="UNDEFINED" p0="25.4" q0="-2.7" bus="BUS-23" connectableBus="BUS-23"/>
        </iidm:voltageLevel>
    </iidm:substation>
    <iidm:substation id="SUB-25">
        <iidm:voltageLevel id="VL-25" nominalV="1.0" lowVoltageLimit="1.00889" highVoltageLimit="1.08444" topologyKind="BUS_BREAKER">
            <iidm:busBreakerTopology>
                <iidm:bus id="BUS-25" v="1.05341127" angle="-16.9569828"/>
            </iidm:busBreakerTopology>
            <iidm:load id="LOAD-25" loadType="UNDEFINED" p0="64.0" q0="4.6" bus="BUS-25" connectableBus="BUS-25"/>
        </iidm:voltageLevel>
    </iidm:substation>
    <iidm:substation id="SUB-27">
        <iidm:voltageLevel id="VL-27" nominalV="1.0" lowVoltageLimit="0.933333" highVoltageLimit="1.08889" topologyKind="BUS_BREAKER">
            <iidm:busBreakerTopology>
                <iidm:bus id="BUS-27" v="1.02093389" angle="-19.8876317"/>
            </iidm:busBreakerTopology>
            <iidm:load id="LOAD-27" loadType="UNDEFINED" p0="71.6" q0="46.7" bus="BUS-27" connectableBus="BUS-27"/>
        </iidm:voltageLevel>
    </iidm:substation>
    <iidm:substation id="SUB-28">
        <iidm:voltageLevel id="VL-28" nominalV="1.0" lowVoltageLimit="1.00444" highVoltageLimit="1.08889" topologyKind="BUS_BREAKER">
            <iidm:busBreakerTopology>
                <iidm:bus id="BUS-28" v="1.03730024" angle="-35.8773947"/>
            </iidm:busBreakerTopology>
            <iidm:load id="LOAD-28" loadType="UNDEFINED" p0="105.4" q0="6.9" bus="BUS-28" connectableBus="BUS-28"/>
        </iidm:voltageLevel>
    </iidm:substation>
    <iidm:substation id="SUB-29">
        <iidm:voltageLevel id="VL-29" nominalV="1.0" lowVoltageLimit="1.04842" highVoltageLimit="1.05" topologyKind="BUS_BREAKER">
            <iidm:busBreakerTopology>
                <iidm:bus id="BUS-29" v="1.05200172" angle="-1.68628576"/>
                <iidm:bus id="BUS-1628" v="0.95" angle="0.785967059"/>
            </iidm:busBreakerTopology>
            <iidm:generator id="GEN-1628" energySource="OTHER" minP="200.0" maxP="670.0" voltageRegulatorOn="true" targetP="200.0" targetV="0.95" targetQ="-60.27" bus="BUS-1628" connectableBus="BUS-1628">
                <iidm:minMaxReactiveLimits minQ="-217.55" maxQ="155.3"/>
            </iidm:generator>
        </iidm:voltageLevel>
        <iidm:twoWindingsTransformer id="TWT-29-1628" r="0.0" x="1.9737000000000002E-4" g="0.0" b="0.0" ratedU1="1.092105" ratedU2="1.0" bus1="BUS-29" connectableBus1="BUS-29" voltageLevelId1="VL-29" bus2="BUS-1628" connectableBus2="BUS-1628" voltageLevelId2="VL-29">
            <iidm:apparentPowerLimits1 permanentLimit="254.0">
                <iidm:temporaryLimit name="RateB" acceptableDuration="1200" value="254.0"/>
                <iidm:temporaryLimit name="RateC" acceptableDuration="60" value="254.0"/>
            </iidm:apparentPowerLimits1>
            <iidm:apparentPowerLimits2 permanentLimit="254.0">
                <iidm:temporaryLimit name="RateB" acceptableDuration="1200" value="254.0"/>
                <iidm:temporaryLimit name="RateC" acceptableDuration="60" value="254.0"/>
            </iidm:apparentPowerLimits2>
        </iidm:twoWindingsTransformer>
    </iidm:substation>
    <iidm:substation id="SUB-30">
        <iidm:voltageLevel id="VL-30" nominalV="1.0" lowVoltageLimit="1.04842" highVoltageLimit="1.05" topologyKind="BUS_BREAKER">
            <iidm:busBreakerTopology>
                <iidm:bus id="BUS-30" v="1.05203048" angle="-1.66991411"/>
                <iidm:bus id="BUS-1629" v="0.95" angle="3.89991599"/>
            </iidm:busBreakerTopology>
            <iidm:generator id="GEN-1629" energySource="OTHER" minP="140.0" maxP="700.0" voltageRegulatorOn="true" targetP="450.03" targetV="0.95" targetQ="-42.82" bus="BUS-1629" connectableBus="BUS-1629">
                <iidm:minMaxReactiveLimits minQ="-190.58" maxQ="231.39"/>
            </iidm:generator>
        </iidm:voltageLevel>
        <iidm:twoWindingsTransformer id="TWT-30-1629" r="0.0" x="1.9737000000000002E-4" g="0.0" b="0.0" ratedU1="1.092105" ratedU2="1.0" bus1="BUS-30" connectableBus1="BUS-30" voltageLevelId1="VL-30" bus2="BUS-1629" connectableBus2="BUS-1629" voltageLevelId2="VL-30">
            <iidm:apparentPowerLimits1 permanentLimit="550.0">
                <iidm:temporaryLimit name="RateB" acceptableDuration="1200" value="550.0"/>
                <iidm:temporaryLimit name="RateC" acceptableDuration="60" value="550.0"/>
            </iidm:apparentPowerLimits1>
            <iidm:apparentPowerLimits2 permanentLimit="550.0">
                <iidm:temporaryLimit name="RateB" acceptableDuration="1200" value="550.0"/>
                <iidm:temporaryLimit name="RateC" acceptableDuration="60" value="550.0"/>
            </iidm:apparentPowerLimits2>
        </iidm:twoWindingsTransformer>
    </iidm:substation>
    <iidm:substation id="SUB-31">
        <iidm:voltageLevel id="VL-31" nominalV="1.0" lowVoltageLimit="1.00889" highVoltageLimit="1.08444" topologyKind="BUS_BREAKER">
            <iidm:busBreakerTopology>
                <iidm:bus id="BUS-31" v="1.04882932" angle="-5.02836666"/>
            </iidm:busBreakerTopology>
            <iidm:load id="LOAD-31" loadType="UNDEFINED" p0="21.7" q0="0.9" bus="BUS-31" connectableBus="BUS-31"/>
        </iidm:voltageLevel>
    </iidm:substation>
    <iidm:substation id="SUB-33">
        <iidm:voltageLevel id="VL-33" nominalV="1.0" lowVoltageLimit="1.00889" highVoltageLimit="1.08444" topologyKind="BUS_BREAKER">
            <iidm:busBreakerTopology>
                <iidm:bus id="BUS-33" v="1.03238586" angle="-5.81622313"/>
            </iidm:busBreakerTopology>
            <iidm:load id="LOAD-33" loadType="UNDEFINED" p0="68.9" q0="2.6" bus="BUS-33" connectableBus="BUS-33"/>
        </iidm:voltageLevel>
    </iidm:substation>
    <iidm:substation id="SUB-34">
        <iidm:voltageLevel id="VL-34" nominalV="1.0" lowVoltageLimit="1.00444" highVoltageLimit="1.08889" topologyKind="BUS_BREAKER">
            <iidm:busBreakerTopology>
                <iidm:bus id="BUS-34" v="1.04308498" angle="-40.784603"/>
            </iidm:busBreakerTopology>
            <iidm:load id="LOAD-34" loadType="UNDEFINED" p0="50.6" q0="12.7" bus="BUS-34" connectableBus="BUS-34"/>
        </iidm:voltageLevel>
    </iidm:substation>
    <iidm:substation id="SUB-35">
        <iidm:voltageLevel id="VL-35" nominalV="1.0" lowVoltageLimit="0.966667" highVoltageLimit="1.08" topologyKind="BUS_BREAKER">
            <iidm:busBreakerTopology>
                <iidm:bus id="BUS-35" v="1.02288941" angle="-21.6110255"/>
            </iidm:busBreakerTopology>
            <iidm:load id="LOAD-35" loadType="UNDEFINED" p0="17.0" q0="2.1" bus="BUS-35" connectableBus="BUS-35"/>
        </iidm:voltageLevel>
    </iidm:substation>
    <iidm:substation id="SUB-36">
        <iidm:voltageLevel id="VL-36" nominalV="1.0" lowVoltageLimit="1.04785" highVoltageLimit="1.09212" topologyKind="BUS_BREAKER">
            <iidm:busBreakerTopology>
                <iidm:bus id="BUS-36" v="1.06155485" angle="-30.7719291"/>
                <iidm:bus id="BUS-37" v="1.06914917" angle="-28.3384744"/>
            </iidm:busBreakerTopology>
            <iidm:load id="LOAD-36" loadType="UNDEFINED" p0="38.2" q0="6.3" bus="BUS-36" connectableBus="BUS-36"/>
        </iidm:voltageLevel>
        <iidm:twoWindingsTransformer id="TWT-36-37" r="3.32E-6" x="2.5E-4" g="0.0" b="0.0" ratedU1="1.001" ratedU2="1.0" bus1="BUS-36" connectableBus1="BUS-36" voltageLevelId1="VL-36" bus2="BUS-37" connectableBus2="BUS-37" voltageLevelId2="VL-36">
            <iidm:apparentPowerLimits1 permanentLimit="1187.0">
                <iidm:temporaryLimit name="RateB" acceptableDuration="1200" value="1187.0"/>
                <iidm:temporaryLimit name="RateC" acceptableDuration="60" value="1187.0"/>
            </iidm:apparentPowerLimits1>
            <iidm:apparentPowerLimits2 permanentLimit="1187.0">
                <iidm:temporaryLimit name="RateB" acceptableDuration="1200" value="1187.0"/>
                <iidm:temporaryLimit name="RateC" acceptableDuration="60" value="1187.0"/>
            </iidm:apparentPowerLimits2>
        </iidm:twoWindingsTransformer>
    </iidm:substation>
    <iidm:substation id="SUB-38">
        <iidm:voltageLevel id="VL-38" nominalV="1.0" lowVoltageLimit="0.986667" highVoltageLimit="1.08889" topologyKind="BUS_BREAKER">
            <iidm:busBreakerTopology>
                <iidm:bus id="BUS-38" v="1.04384914" angle="-38.1605038"/>
            </iidm:busBreakerTopology>
            <iidm:load id="LOAD-38" loadType="UNDEFINED" p0="89.0" q0="9.6" bus="BUS-38" connectableBus="BUS-38"/>
        </iidm:voltageLevel>
    </iidm:substation>
    <iidm:substation id="SUB-39">
        <iidm:voltageLevel id="VL-39" nominalV="1.0" lowVoltageLimit="1.02632" highVoltageLimit="1.08889" topologyKind="BUS_BREAKER">
            <iidm:busBreakerTopology>
                <iidm:bus id="BUS-2050" v="1.02504482" angle="-43.1806456"/>
                <iidm:bus id="BUS-39" v="1.0289438" angle="-42.3593003"/>
                <iidm:bus id="BUS-1551" v="1.03420736" angle="-43.2488677"/>
                <iidm:bus id="BUS-1600" v="1.02868869" angle="-43.3195299"/>
            </iidm:busBreakerTopology>
            <iidm:load id="LOAD-39" loadType="UNDEFINED" p0="70.9" q0="-2.3" bus="BUS-39" connectableBus="BUS-39"/>
            <iidm:shunt id="SHUNT-2050" sectionCount="1" voltageRegulatorOn="false" bus="BUS-2050" connectableBus="BUS-2050">
                <iidm:shuntLinearModel bPerSection="-64.0" maximumSectionCount="1"/>
            </iidm:shunt>
        </iidm:voltageLevel>
        <iidm:twoWindingsTransformer id="TWT-2050-1551" r="1.787E-5" x="8.469500000000001E-4" g="0.0" b="0.0" ratedU1="1.05042" ratedU2="1.0" bus1="BUS-2050" connectableBus1="BUS-2050" voltageLevelId1="VL-39" bus2="BUS-1551" connectableBus2="BUS-1551" voltageLevelId2="VL-39"/>
        <iidm:twoWindingsTransformer id="TWT-39-1551" r="1.45E-6" x="-6.302E-5" g="0.0" b="0.0" ratedU1="1.0" ratedU2="1.0" bus1="BUS-39" connectableBus1="BUS-39" voltageLevelId1="VL-39" bus2="BUS-1551" connectableBus2="BUS-1551" voltageLevelId2="VL-39">
            <iidm:apparentPowerLimits1 permanentLimit="1186.0">
                <iidm:temporaryLimit name="RateB" acceptableDuration="1200" value="1186.0"/>
                <iidm:temporaryLimit name="RateC" acceptableDuration="60" value="1186.0"/>
            </iidm:apparentPowerLimits1>
            <iidm:apparentPowerLimits2 permanentLimit="1186.0">
                <iidm:temporaryLimit name="RateB" acceptableDuration="1200" value="1186.0"/>
                <iidm:temporaryLimit name="RateC" acceptableDuration="60" value="1186.0"/>
            </iidm:apparentPowerLimits2>
        </iidm:twoWindingsTransformer>
        <iidm:twoWindingsTransformer id="TWT-39-1600" r="1.25E-6" x="-6.787E-5" g="0.0" b="0.0" ratedU1="1.0" ratedU2="1.0" bus1="BUS-39" connectableBus1="BUS-39" voltageLevelId1="VL-39" bus2="BUS-1600" connectableBus2="BUS-1600" voltageLevelId2="VL-39">
            <iidm:apparentPowerLimits1 permanentLimit="1187.0">
                <iidm:temporaryLimit name="RateB" acceptableDuration="1200" value="1187.0"/>
                <iidm:temporaryLimit name="RateC" acceptableDuration="60" value="1187.0"/>
            </iidm:apparentPowerLimits1>
            <iidm:apparentPowerLimits2 permanentLimit="1187.0">
                <iidm:temporaryLimit name="RateB" acceptableDuration="1200" value="1187.0"/>
                <iidm:temporaryLimit name="RateC" acceptableDuration="60" value="1187.0"/>
            </iidm:apparentPowerLimits2>
        </iidm:twoWindingsTransformer>
    </iidm:substation>
    <iidm:substation id="SUB-40">
        <iidm:voltageLevel id="VL-40" nominalV="1.0" lowVoltageLimit="1.0" highVoltageLimit="1.10526" topologyKind="BUS_BREAKER">
            <iidm:busBreakerTopology>
                <iidm:bus id="BUS-40" v="1.03444741" angle="-38.8153203"/>
            </iidm:busBreakerTopology>
            <iidm:load id="LOAD-40" loadType="UNDEFINED" p0="136.2" q0="-10.7" bus="BUS-40" connectableBus="BUS-40"/>
        </iidm:voltageLevel>
    </iidm:substation>
    <iidm:substation id="SUB-41">
        <iidm:voltageLevel id="VL-41" nominalV="1.0" lowVoltageLimit="0.933333" highVoltageLimit="1.08889" topologyKind="BUS_BREAKER">
            <iidm:busBreakerTopology>
                <iidm:bus id="BUS-41" v="1.04164115" angle="-27.3301536"/>
            </iidm:busBreakerTopology>
            <iidm:load id="LOAD-41" loadType="UNDEFINED" p0="64.6" q0="17.3" bus="BUS-41" connectableBus="BUS-41"/>
        </iidm:voltageLevel>
    </iidm:substation>
    <iidm:substation id="SUB-42">
        <iidm:voltageLevel id="VL-42" nominalV="1.0" lowVoltageLimit="0.888889" highVoltageLimit="1.08889" topologyKind="BUS_BREAKER">
            <iidm:busBreakerTopology>
                <iidm:bus id="BUS-42" v="1.02663818" angle="-46.6229704"/>
            </iidm:busBreakerTopology>
            <iidm:load id="LOAD-42" loadType="UNDEFINED" p0="13.4" q0="3.3" bus="BUS-42" connectableBus="BUS-42"/>
        </iidm:voltageLevel>
    </iidm:substation>
    <iidm:substation id="SUB-43">
        <iidm:voltageLevel id="VL-43" nominalV="1.0" lowVoltageLimit="0.888889" highVoltageLimit="1.08889" topologyKind="BUS_BREAKER">
            <iidm:busBreakerTopology>
                <iidm:bus id="BUS-43" v="1.0264638" angle="-46.6671033"/>
            </iidm:busBreakerTopology>
            <iidm:load id="LOAD-43" loadType="UNDEFINED" p0="33.3" q0="4.7" bus="BUS-43" connectableBus="BUS-43"/>
        </iidm:voltageLevel>
    </iidm:substation>
    <iidm:substation id="SUB-44">
        <iidm:voltageLevel id="VL-44" nominalV="1.0" lowVoltageLimit="1.00444" highVoltageLimit="1.08496" topologyKind="BUS_BREAKER">
            <iidm:busBreakerTopology>
                <iidm:bus id="BUS-44" v="1.05486257" angle="-26.1320802"/>
            </iidm:busBreakerTopology>
            <iidm:load id="LOAD-44" loadType="UNDEFINED" p0="211.6" q0="-1.3" bus="BUS-44" connectableBus="BUS-44"/>
        </iidm:voltageLevel>
    </iidm:substation>
    <iidm:substation id="SUB-45">
        <iidm:voltageLevel id="VL-45" nominalV="1.0" lowVoltageLimit="1.00444" highVoltageLimit="1.08889" topologyKind="BUS_BREAKER">
            <iidm:busBreakerTopology>
                <iidm:bus id="BUS-45" v="1.04812576" angle="-38.9307223"/>
            </iidm:busBreakerTopology>
            <iidm:load id="LOAD-45" loadType="UNDEFINED" p0="92.1" q0="-9.1" bus="BUS-45" connectableBus="BUS-45"/>
        </iidm:voltageLevel>
    </iidm:substation>
    <iidm:substation id="SUB-46">
        <iidm:voltageLevel id="VL-46" nominalV="1.0" lowVoltageLimit="0.9" highVoltageLimit="1.10843" topologyKind="BUS_BREAKER">
            <iidm:busBreakerTopology>
                <iidm:bus id="BUS-46" v="1.038" angle="-7.667229"/>
            </iidm:busBreakerTopology>
            <iidm:generator id="GEN-46" energySource="OTHER" minP="6.0" maxP="30.0" voltageRegulatorOn="true" targetP="28.0" targetV="1.038" targetQ="-4.0" bus="BUS-46" connectableBus="BUS-46">
                <iidm:minMaxReactiveLimits minQ="-4.0" maxQ="10.0"/>
            </iidm:generator>
        </iidm:voltageLevel>
    </iidm:substation>
    <iidm:substation id="SUB-47">
        <iidm:voltageLevel id="VL-47" nominalV="1.0" lowVoltageLimit="1.00444" highVoltageLimit="1.08889" topologyKind="BUS_BREAKER">
            <iidm:busBreakerTopology>
                <iidm:bus id="BUS-47" v="1.0263661" angle="-41.311783"/>
            </iidm:busBreakerTopology>
        </iidm:voltageLevel>
    </iidm:substation>
    <iidm:substation id="SUB-48">
        <iidm:voltageLevel id="VL-48" nominalV="1.0" lowVoltageLimit="1.00444" highVoltageLimit="1.08889" topologyKind="BUS_BREAKER">
            <iidm:busBreakerTopology>
                <iidm:bus id="BUS-48" v="1.02636589" angle="-41.3117818"/>
            </iidm:busBreakerTopology>
        </iidm:voltageLevel>
    </iidm:substation>
    <iidm:substation id="SUB-49">
        <iidm:voltageLevel id="VL-49" nominalV="1.0" lowVoltageLimit="1.00444" highVoltageLimit="1.08889" topologyKind="BUS_BREAKER">
            <iidm:busBreakerTopology>
                <iidm:bus id="BUS-49" v="1.02636466" angle="-41.3117749"/>
            </iidm:busBreakerTopology>
            <iidm:load id="LOAD-49" loadType="UNDEFINED" p0="63.7" q0="84.5" bus="BUS-49" connectableBus="BUS-49"/>
            <iidm:shunt id="SHUNT-49" sectionCount="1" voltageRegulatorOn="false" bus="BUS-49" connectableBus="BUS-49">
                <iidm:shuntLinearModel bPerSection="-80.0" maximumSectionCount="1"/>
            </iidm:shunt>
        </iidm:voltageLevel>
    </iidm:substation>
    <iidm:substation id="SUB-50">
        <iidm:voltageLevel id="VL-50" nominalV="1.0" lowVoltageLimit="1.00444" highVoltageLimit="1.08889" topologyKind="BUS_BREAKER">
            <iidm:busBreakerTopology>
                <iidm:bus id="BUS-50" v="1.03638741" angle="-36.2197213"/>
            </iidm:busBreakerTopology>
            <iidm:load id="LOAD-50" loadType="UNDEFINED" p0="10.4" q0="6.6" bus="BUS-50" connectableBus="BUS-50"/>
        </iidm:voltageLevel>
    </iidm:substation>
    <iidm:substation id="SUB-51">
        <iidm:voltageLevel id="VL-51" nominalV="1.0" lowVoltageLimit="1.0" highVoltageLimit="1.08889" topologyKind="BUS_BREAKER">
            <iidm:busBreakerTopology>
                <iidm:bus id="BUS-51" v="1.05188712" angle="-17.4043224"/>
                <iidm:bus id="BUS-1844" v="0.885" angle="-8.31011447"/>
            </iidm:busBreakerTopology>
            <iidm:generator id="GEN-1844" energySource="OTHER" minP="5.4" maxP="27.0" voltageRegulatorOn="true" targetP="26.0" targetV="0.885" targetQ="-13.69" bus="BUS-1844" connectableBus="BUS-1844">
                <iidm:minMaxReactiveLimits minQ="-15.38" maxQ="24.62"/>
            </iidm:generator>
        </iidm:voltageLevel>
        <iidm:twoWindingsTransformer id="TWT-51-1844" r="0.0" x="0.0054184" g="0.0" b="0.0" ratedU1="1.044444" ratedU2="1.0" bus1="BUS-51" connectableBus1="BUS-51" voltageLevelId1="VL-51" bus2="BUS-1844" connectableBus2="BUS-1844" voltageLevelId2="VL-51"/>
    </iidm:substation>
    <iidm:substation id="SUB-52">
        <iidm:voltageLevel id="VL-52" nominalV="1.0" lowVoltageLimit="0.888889" highVoltageLimit="1.08889" topologyKind="BUS_BREAKER">
            <iidm:busBreakerTopology>
                <iidm:bus id="BUS-52" v="1.01896671" angle="-46.9184464"/>
            </iidm:busBreakerTopology>
            <iidm:load id="LOAD-52" loadType="UNDEFINED" p0="68.7" q0="16.5" bus="BUS-52" connectableBus="BUS-52"/>
        </iidm:voltageLevel>
    </iidm:substation>
    <iidm:substation id="SUB-53">
        <iidm:voltageLevel id="VL-53" nominalV="1.0" lowVoltageLimit="1.0" highVoltageLimit="1.08889" topologyKind="BUS_BREAKER">
            <iidm:busBreakerTopology>
                <iidm:bus id="BUS-53" v="1.01034096" angle="-45.5670543"/>
                <iidm:bus id="BUS-54" v="1.01362701" angle="-43.3936365"/>
            </iidm:busBreakerTopology>
            <iidm:load id="LOAD-53" loadType="UNDEFINED" p0="101.2" q0="15.9" bus="BUS-53" connectableBus="BUS-53"/>
        </iidm:voltageLevel>
        <iidm:twoWindingsTransformer id="TWT-53-54" r="6.65E-6" x="4.8338E-4" g="0.0" b="0.0" ratedU1="0.996016" ratedU2="1.0" bus1="BUS-53" connectableBus1="BUS-53" voltageLevelId1="VL-53" bus2="BUS-54" connectableBus2="BUS-54" voltageLevelId2="VL-53">
            <iidm:apparentPowerLimits1 permanentLimit="606.0">
                <iidm:temporaryLimit name="RateB" acceptableDuration="1200" value="606.0"/>
                <iidm:temporaryLimit name="RateC" acceptableDuration="60" value="606.0"/>
            </iidm:apparentPowerLimits1>
            <iidm:apparentPowerLimits2 permanentLimit="606.0">
                <iidm:temporaryLimit name="RateB" acceptableDuration="1200" value="606.0"/>
                <iidm:temporaryLimit name="RateC" acceptableDuration="60" value="606.0"/>
            </iidm:apparentPowerLimits2>
        </iidm:twoWindingsTransformer>
        <iidm:twoWindingsTransformer id="TWT-53-54#0" r="7.83E-6" x="3.9612E-4" g="0.0" b="0.0" ratedU1="0.996016" ratedU2="1.0" bus1="BUS-53" connectableBus1="BUS-53" voltageLevelId1="VL-53" bus2="BUS-54" connectableBus2="BUS-54" voltageLevelId2="VL-53">
            <iidm:apparentPowerLimits1 permanentLimit="606.0">
                <iidm:temporaryLimit name="RateB" acceptableDuration="1200" value="606.0"/>
                <iidm:temporaryLimit name="RateC" acceptableDuration="60" value="606.0"/>
            </iidm:apparentPowerLimits1>
            <iidm:apparentPowerLimits2 permanentLimit="606.0">
                <iidm:temporaryLimit name="RateB" acceptableDuration="1200" value="606.0"/>
                <iidm:temporaryLimit name="RateC" acceptableDuration="60" value="606.0"/>
            </iidm:apparentPowerLimits2>
        </iidm:twoWindingsTransformer>
    </iidm:substation>
    <iidm:substation id="SUB-55">
        <iidm:voltageLevel id="VL-55" nominalV="1.0" lowVoltageLimit="1.00889" highVoltageLimit="1.08444" topologyKind="BUS_BREAKER">
            <iidm:busBreakerTopology>
                <iidm:bus id="BUS-55" v="1.02696752" angle="-5.12919002"/>
            </iidm:busBreakerTopology>
            <iidm:load id="LOAD-55" loadType="UNDEFINED" p0="28.9" q0="10.6" bus="BUS-55" connectableBus="BUS-55"/>
        </iidm:voltageLevel>
    </iidm:substation>
    <iidm:substation id="SUB-56">
        <iidm:voltageLevel id="VL-56" nominalV="1.0" lowVoltageLimit="1.00889" highVoltageLimit="1.08444" topologyKind="BUS_BREAKER">
            <iidm:busBreakerTopology>
                <iidm:bus id="BUS-56" v="1.0271573" angle="-5.13060801"/>
            </iidm:busBreakerTopology>
            <iidm:load id="LOAD-56" loadType="UNDEFINED" p0="28.2" q0="2.1" bus="BUS-56" connectableBus="BUS-56"/>
        </iidm:voltageLevel>
    </iidm:substation>
    <iidm:substation id="SUB-1827">
        <iidm:voltageLevel id="VL-1827" nominalV="1.0" lowVoltageLimit="1.00444" highVoltageLimit="1.08889" topologyKind="BUS_BREAKER">
            <iidm:busBreakerTopology>
                <iidm:bus id="BUS-1827" v="1.04260248" angle="-34.6579535"/>
            </iidm:busBreakerTopology>
            <iidm:load id="LOAD-1827" loadType="UNDEFINED" p0="109.6" q0="-12.9" bus="BUS-1827" connectableBus="BUS-1827"/>
        </iidm:voltageLevel>
    </iidm:substation>
    <iidm:substation id="SUB-57">
        <iidm:voltageLevel id="VL-57" nominalV="1.0" lowVoltageLimit="0.933333" highVoltageLimit="1.08945" topologyKind="BUS_BREAKER">
            <iidm:busBreakerTopology>
                <iidm:bus id="BUS-57" v="1.05354664" angle="-20.3612759"/>
            </iidm:busBreakerTopology>
            <iidm:load id="LOAD-57" loadType="UNDEFINED" p0="27.3" q0="-10.9" bus="BUS-57" connectableBus="BUS-57"/>
        </iidm:voltageLevel>
    </iidm:substation>
    <iidm:substation id="SUB-58">
        <iidm:voltageLevel id="VL-58" nominalV="1.0" lowVoltageLimit="0.9" highVoltageLimit="1.10862" topologyKind="BUS_BREAKER">
            <iidm:busBreakerTopology>
                <iidm:bus id="BUS-58" v="1.03648193" angle="-7.87858801"/>
            </iidm:busBreakerTopology>
            <iidm:generator id="GEN-58" energySource="OTHER" minP="1.2" maxP="6.0" voltageRegulatorOn="true" targetP="0.0" targetV="1.037" targetQ="0.0" connectableBus="BUS-58">
                <iidm:minMaxReactiveLimits minQ="1.9" maxQ="2.0"/>
            </iidm:generator>
        </iidm:voltageLevel>
    </iidm:substation>
    <iidm:substation id="SUB-59">
        <iidm:voltageLevel id="VL-59" nominalV="1.0" lowVoltageLimit="1.00889" highVoltageLimit="1.08444" topologyKind="BUS_BREAKER">
            <iidm:busBreakerTopology>
                <iidm:bus id="BUS-59" v="1.02314002" angle="-2.05815662"/>
            </iidm:busBreakerTopology>
            <iidm:load id="LOAD-59" loadType="UNDEFINED" p0="36.8" q0="20.3" bus="BUS-59" connectableBus="BUS-59"/>
        </iidm:voltageLevel>
    </iidm:substation>
    <iidm:substation id="SUB-60">
        <iidm:voltageLevel id="VL-60" nominalV="1.0" lowVoltageLimit="1.00889" highVoltageLimit="1.08444" topologyKind="BUS_BREAKER">
            <iidm:busBreakerTopology>
                <iidm:bus id="BUS-60" v="1.02296855" angle="-2.05607045"/>
            </iidm:busBreakerTopology>
            <iidm:load id="LOAD-60" loadType="UNDEFINED" p0="36.5" q0="30.8" bus="BUS-60" connectableBus="BUS-60"/>
        </iidm:voltageLevel>
    </iidm:substation>
    <iidm:substation id="SUB-61">
        <iidm:voltageLevel id="VL-61" nominalV="1.0" lowVoltageLimit="0.977778" highVoltageLimit="1.05" topologyKind="BUS_BREAKER">
            <iidm:busBreakerTopology>
                <iidm:bus id="BUS-61" v="1.02486847" angle="-2.91097833"/>
                <iidm:bus id="BUS-1630" v="0.928" angle="5.05139212"/>
                <iidm:bus id="BUS-1631" v="0.93" angle="-1.4763482"/>
            </iidm:busBreakerTopology>
            <iidm:generator id="GEN-1630" energySource="OTHER" minP="17.2" maxP="86.0" voltageRegulatorOn="true" targetP="83.0" targetV="0.928" targetQ="8.77" bus="BUS-1630" connectableBus="BUS-1630">
                <iidm:minMaxReactiveLimits minQ="-8.5" maxQ="43.86"/>
            </iidm:generator>
            <iidm:generator id="GEN-1631" energySource="OTHER" minP="9.8" maxP="49.0" voltageRegulatorOn="true" targetP="9.8" targetV="0.93" targetQ="3.09" bus="BUS-1631" connectableBus="BUS-1631">
                <iidm:minMaxReactiveLimits minQ="-9.73" maxQ="22.19"/>
            </iidm:generator>
        </iidm:voltageLevel>
        <iidm:twoWindingsTransformer id="TWT-61-1630" r="0.0" x="0.00142857" g="0.0" b="0.0" ratedU1="1.111111" ratedU2="1.0" bus1="BUS-61" connectableBus1="BUS-61" voltageLevelId1="VL-61" bus2="BUS-1630" connectableBus2="BUS-1630" voltageLevelId2="VL-61"/>
        <iidm:twoWindingsTransformer id="TWT-61-1631" r="0.0" x="0.0021914900000000004" g="0.0" b="0.0" ratedU1="1.111111" ratedU2="1.0" bus1="BUS-61" connectableBus1="BUS-61" voltageLevelId1="VL-61" bus2="BUS-1631" connectableBus2="BUS-1631" voltageLevelId2="VL-61"/>
    </iidm:substation>
    <iidm:substation id="SUB-62">
        <iidm:voltageLevel id="VL-62" nominalV="1.0" lowVoltageLimit="0.888889" highVoltageLimit="1.08889" topologyKind="BUS_BREAKER">
            <iidm:busBreakerTopology>
                <iidm:bus id="BUS-62" v="1.02838774" angle="-44.8442595"/>
            </iidm:busBreakerTopology>
            <iidm:load id="LOAD-62" loadType="UNDEFINED" p0="8.4" q0="-0.3" bus="BUS-62" connectableBus="BUS-62"/>
        </iidm:voltageLevel>
    </iidm:substation>
    <iidm:substation id="SUB-63">
        <iidm:voltageLevel id="VL-63" nominalV="1.0" lowVoltageLimit="0.933333" highVoltageLimit="1.08889" topologyKind="BUS_BREAKER">
            <iidm:busBreakerTopology>
                <iidm:bus id="BUS-63" v="1.06744633" angle="-26.4263846"/>
            </iidm:busBreakerTopology>
            <iidm:load id="LOAD-63" loadType="UNDEFINED" p0="13.2" q0="-6.3" bus="BUS-63" connectableBus="BUS-63"/>
        </iidm:voltageLevel>
    </iidm:substation>
    <iidm:substation id="SUB-64">
        <iidm:voltageLevel id="VL-64" nominalV="1.0" lowVoltageLimit="1.00444" highVoltageLimit="1.08889" topologyKind="BUS_BREAKER">
            <iidm:busBreakerTopology>
                <iidm:bus id="BUS-64" v="1.02235895" angle="-40.5268336"/>
            </iidm:busBreakerTopology>
            <iidm:load id="LOAD-64" loadType="UNDEFINED" p0="13.2" q0="3.3" bus="BUS-64" connectableBus="BUS-64"/>
        </iidm:voltageLevel>
    </iidm:substation>
    <iidm:substation id="SUB-65">
        <iidm:voltageLevel id="VL-65" nominalV="1.0" lowVoltageLimit="1.00444" highVoltageLimit="1.08889" topologyKind="BUS_BREAKER">
            <iidm:busBreakerTopology>
                <iidm:bus id="BUS-65" v="1.04797022" angle="-36.5723751"/>
            </iidm:busBreakerTopology>
            <iidm:load id="LOAD-65" loadType="UNDEFINED" p0="22.7" q0="2.5" bus="BUS-65" connectableBus="BUS-65"/>
        </iidm:voltageLevel>
    </iidm:substation>
    <iidm:substation id="SUB-66">
        <iidm:voltageLevel id="VL-66" nominalV="1.0" lowVoltageLimit="1.0" highVoltageLimit="1.08889" topologyKind="BUS_BREAKER">
            <iidm:busBreakerTopology>
                <iidm:bus id="BUS-66" v="1.05467372" angle="-17.6792601"/>
            </iidm:busBreakerTopology>
            <iidm:load id="LOAD-66" loadType="UNDEFINED" p0="11.4" q0="-9.7" bus="BUS-66" connectableBus="BUS-66"/>
        </iidm:voltageLevel>
    </iidm:substation>
    <iidm:substation id="SUB-67">
        <iidm:voltageLevel id="VL-67" nominalV="1.0" lowVoltageLimit="0.986667" highVoltageLimit="1.08889" topologyKind="BUS_BREAKER">
            <iidm:busBreakerTopology>
                <iidm:bus id="BUS-67" v="1.03887262" angle="-32.7145163"/>
            </iidm:busBreakerTopology>
            <iidm:load id="LOAD-67" loadType="UNDEFINED" p0="10.2" q0="-1.3" bus="BUS-67" connectableBus="BUS-67"/>
        </iidm:voltageLevel>
    </iidm:substation>
    <iidm:substation id="SUB-68">
        <iidm:voltageLevel id="VL-68" nominalV="1.0" lowVoltageLimit="1.01316" highVoltageLimit="1.08889" topologyKind="BUS_BREAKER">
            <iidm:busBreakerTopology>
                <iidm:bus id="BUS-68" v="1.02951107" angle="-46.2333151"/>
                <iidm:bus id="BUS-69" v="1.02342882" angle="-46.4249539"/>
                <iidm:bus id="BUS-70" v="1.0318011" angle="-44.4602666"/>
            </iidm:busBreakerTopology>
        </iidm:voltageLevel>
        <iidm:twoWindingsTransformer id="TWT-68-70" r="3.4600000000000003E-6" x="2.5139000000000004E-4" g="0.0" b="0.0" ratedU1="1.0" ratedU2="1.0" bus1="BUS-68" connectableBus1="BUS-68" voltageLevelId1="VL-68" bus2="BUS-70" connectableBus2="BUS-70" voltageLevelId2="VL-68">
            <iidm:apparentPowerLimits1 permanentLimit="1186.0">
                <iidm:temporaryLimit name="RateB" acceptableDuration="1200" value="1186.0"/>
                <iidm:temporaryLimit name="RateC" acceptableDuration="60" value="1186.0"/>
            </iidm:apparentPowerLimits1>
            <iidm:apparentPowerLimits2 permanentLimit="1186.0">
                <iidm:temporaryLimit name="RateB" acceptableDuration="1200" value="1186.0"/>
                <iidm:temporaryLimit name="RateC" acceptableDuration="60" value="1186.0"/>
            </iidm:apparentPowerLimits2>
        </iidm:twoWindingsTransformer>
        <iidm:twoWindingsTransformer id="TWT-68-70#0" r="3.39E-6" x="2.4931E-4" g="0.0" b="0.0" ratedU1="1.0" ratedU2="1.0" bus1="BUS-68" connectableBus1="BUS-68" voltageLevelId1="VL-68" bus2="BUS-70" connectableBus2="BUS-70" voltageLevelId2="VL-68">
            <iidm:apparentPowerLimits1 permanentLimit="1186.0">
                <iidm:temporaryLimit name="RateB" acceptableDuration="1200" value="1186.0"/>
                <iidm:temporaryLimit name="RateC" acceptableDuration="60" value="1186.0"/>
            </iidm:apparentPowerLimits1>
            <iidm:apparentPowerLimits2 permanentLimit="1186.0">
                <iidm:temporaryLimit name="RateB" acceptableDuration="1200" value="1186.0"/>
                <iidm:temporaryLimit name="RateC" acceptableDuration="60" value="1186.0"/>
            </iidm:apparentPowerLimits2>
        </iidm:twoWindingsTransformer>
        <iidm:twoWindingsTransformer id="TWT-69-70" r="3.39E-6" x="2.4931E-4" g="0.0" b="0.0" ratedU1="1.0" ratedU2="1.0" bus1="BUS-69" connectableBus1="BUS-69" voltageLevelId1="VL-68" bus2="BUS-70" connectableBus2="BUS-70" voltageLevelId2="VL-68">
            <iidm:apparentPowerLimits1 permanentLimit="1186.0">
                <iidm:temporaryLimit name="RateB" acceptableDuration="1200" value="1186.0"/>
                <iidm:temporaryLimit name="RateC" acceptableDuration="60" value="1186.0"/>
            </iidm:apparentPowerLimits1>
            <iidm:apparentPowerLimits2 permanentLimit="1186.0">
                <iidm:temporaryLimit name="RateB" acceptableDuration="1200" value="1186.0"/>
                <iidm:temporaryLimit name="RateC" acceptableDuration="60" value="1186.0"/>
            </iidm:apparentPowerLimits2>
        </iidm:twoWindingsTransformer>
    </iidm:substation>
    <iidm:substation id="SUB-71">
        <iidm:voltageLevel id="VL-71" nominalV="1.0" lowVoltageLimit="1.00444" highVoltageLimit="1.08889" topologyKind="BUS_BREAKER">
            <iidm:busBreakerTopology>
                <iidm:bus id="BUS-71" v="1.03661923" angle="-41.0915733"/>
            </iidm:busBreakerTopology>
            <iidm:load id="LOAD-71" loadType="UNDEFINED" p0="39.2" q0="2.8" bus="BUS-71" connectableBus="BUS-71"/>
        </iidm:voltageLevel>
    </iidm:substation>
    <iidm:substation id="SUB-72">
        <iidm:voltageLevel id="VL-72" nominalV="1.0" lowVoltageLimit="1.00444" highVoltageLimit="1.08889" topologyKind="BUS_BREAKER">
            <iidm:busBreakerTopology>
                <iidm:bus id="BUS-72" v="1.03559998" angle="-40.0611412"/>
            </iidm:busBreakerTopology>
            <iidm:load id="LOAD-72" loadType="UNDEFINED" p0="19.3" q0="3.3" bus="BUS-72" connectableBus="BUS-72"/>
            <iidm:shunt id="SHUNT-72" sectionCount="1" voltageRegulatorOn="false" bus="BUS-72" connectableBus="BUS-72">
                <iidm:shuntLinearModel bPerSection="-80.0" maximumSectionCount="1"/>
            </iidm:shunt>
        </iidm:voltageLevel>
    </iidm:substation>
    <iidm:substation id="SUB-73">
        <iidm:voltageLevel id="VL-73" nominalV="1.0" lowVoltageLimit="0.977778" highVoltageLimit="1.08889" topologyKind="BUS_BREAKER">
            <iidm:busBreakerTopology>
                <iidm:bus id="BUS-73" v="1.04335905" angle="-5.37629191"/>
                <iidm:bus id="BUS-1846" v="1.034" angle="0.477910041"/>
                <iidm:bus id="BUS-1632" v="1.034" angle="0.477910041"/>
            </iidm:busBreakerTopology>
            <iidm:generator id="GEN-1846" energySource="OTHER" minP="6.4" maxP="32.0" voltageRegulatorOn="true" targetP="30.0" targetV="1.034" targetQ="-1.12" bus="BUS-1846" connectableBus="BUS-1846">
                <iidm:minMaxReactiveLimits minQ="-8.36" maxQ="8.36"/>
            </iidm:generator>
            <iidm:generator id="GEN-1632" energySource="OTHER" minP="6.4" maxP="32.0" voltageRegulatorOn="true" targetP="30.0" targetV="1.034" targetQ="-1.12" bus="BUS-1632" connectableBus="BUS-1632">
                <iidm:minMaxReactiveLimits minQ="-8.36" maxQ="8.36"/>
            </iidm:generator>
        </iidm:voltageLevel>
        <iidm:twoWindingsTransformer id="TWT-73-1846" r="0.0" x="0.00366794" g="0.0" b="0.0" ratedU1="1.0" ratedU2="1.0" bus1="BUS-73" connectableBus1="BUS-73" voltageLevelId1="VL-73" bus2="BUS-1846" connectableBus2="BUS-1846" voltageLevelId2="VL-73"/>
        <iidm:twoWindingsTransformer id="TWT-73-1632" r="0.0" x="0.00366794" g="0.0" b="0.0" ratedU1="1.0" ratedU2="1.0" bus1="BUS-73" connectableBus1="BUS-73" voltageLevelId1="VL-73" bus2="BUS-1632" connectableBus2="BUS-1632" voltageLevelId2="VL-73"/>
    </iidm:substation>
    <iidm:substation id="SUB-74">
        <iidm:voltageLevel id="VL-74" nominalV="1.0" lowVoltageLimit="0.977778" highVoltageLimit="1.08889" topologyKind="BUS_BREAKER">
            <iidm:busBreakerTopology>
                <iidm:bus id="BUS-74" v="1.0433684" angle="-5.3756094"/>
                <iidm:bus id="BUS-1847" v="1.034" angle="0.478539929"/>
                <iidm:bus id="BUS-1848" v="1.034" angle="0.478539929"/>
            </iidm:busBreakerTopology>
            <iidm:generator id="GEN-1847" energySource="OTHER" minP="6.4" maxP="32.0" voltageRegulatorOn="true" targetP="30.0" targetV="1.034" targetQ="-1.06" bus="BUS-1847" connectableBus="BUS-1847">
                <iidm:minMaxReactiveLimits minQ="-8.57" maxQ="8.15"/>
            </iidm:generator>
            <iidm:generator id="GEN-1848" energySource="OTHER" minP="6.4" maxP="32.0" voltageRegulatorOn="true" targetP="30.0" targetV="1.034" targetQ="-1.06" bus="BUS-1848" connectableBus="BUS-1848">
                <iidm:minMaxReactiveLimits minQ="-8.57" maxQ="8.15"/>
            </iidm:generator>
        </iidm:voltageLevel>
        <iidm:twoWindingsTransformer id="TWT-74-1847" r="0.0" x="0.00366794" g="0.0" b="0.0" ratedU1="1.0" ratedU2="1.0" bus1="BUS-74" connectableBus1="BUS-74" voltageLevelId1="VL-74" bus2="BUS-1847" connectableBus2="BUS-1847" voltageLevelId2="VL-74"/>
        <iidm:twoWindingsTransformer id="TWT-74-1848" r="0.0" x="0.00366794" g="0.0" b="0.0" ratedU1="1.0" ratedU2="1.0" bus1="BUS-74" connectableBus1="BUS-74" voltageLevelId1="VL-74" bus2="BUS-1848" connectableBus2="BUS-1848" voltageLevelId2="VL-74"/>
    </iidm:substation>
    <iidm:substation id="SUB-75">
        <iidm:voltageLevel id="VL-75" nominalV="1.0" lowVoltageLimit="1.00889" highVoltageLimit="1.08444" topologyKind="BUS_BREAKER">
            <iidm:busBreakerTopology>
                <iidm:bus id="BUS-75" v="1.04166114" angle="-5.85761588"/>
            </iidm:busBreakerTopology>
            <iidm:load id="LOAD-75" loadType="UNDEFINED" p0="131.9" q0="3.2" bus="BUS-75" connectableBus="BUS-75"/>
        </iidm:voltageLevel>
    </iidm:substation>
    <iidm:substation id="SUB-76">
        <iidm:voltageLevel id="VL-76" nominalV="1.0" lowVoltageLimit="1.04211" highVoltageLimit="1.08444" topologyKind="BUS_BREAKER">
            <iidm:busBreakerTopology>
                <iidm:bus id="BUS-76" v="1.05127602" angle="-21.5672592"/>
                <iidm:bus id="BUS-77" v="1.04792325" angle="-16.6550615"/>
            </iidm:busBreakerTopology>
        </iidm:voltageLevel>
        <iidm:twoWindingsTransformer id="TWT-76-77" r="8.03E-6" x="4.2451999999999995E-4" g="0.0" b="0.0" ratedU1="0.996016" ratedU2="1.0" bus1="BUS-76" connectableBus1="BUS-76" voltageLevelId1="VL-76" bus2="BUS-77" connectableBus2="BUS-77" voltageLevelId2="VL-76">
            <iidm:apparentPowerLimits1 permanentLimit="600.0">
                <iidm:temporaryLimit name="RateB" acceptableDuration="1200" value="600.0"/>
                <iidm:temporaryLimit name="RateC" acceptableDuration="60" value="600.0"/>
            </iidm:apparentPowerLimits1>
            <iidm:apparentPowerLimits2 permanentLimit="600.0">
                <iidm:temporaryLimit name="RateB" acceptableDuration="1200" value="600.0"/>
                <iidm:temporaryLimit name="RateC" acceptableDuration="60" value="600.0"/>
            </iidm:apparentPowerLimits2>
        </iidm:twoWindingsTransformer>
    </iidm:substation>
    <iidm:substation id="SUB-78">
        <iidm:voltageLevel id="VL-78" nominalV="1.0" lowVoltageLimit="1.00444" highVoltageLimit="1.08444" topologyKind="BUS_BREAKER">
            <iidm:busBreakerTopology>
                <iidm:bus id="BUS-78" v="1.05118552" angle="-21.616673"/>
            </iidm:busBreakerTopology>
            <iidm:load id="LOAD-78" loadType="UNDEFINED" p0="94.6" q0="-1.9" bus="BUS-78" connectableBus="BUS-78"/>
        </iidm:voltageLevel>
    </iidm:substation>
    <iidm:substation id="SUB-79">
        <iidm:voltageLevel id="VL-79" nominalV="1.0" lowVoltageLimit="1.00444" highVoltageLimit="1.08936" topologyKind="BUS_BREAKER">
            <iidm:busBreakerTopology>
                <iidm:bus id="BUS-79" v="1.02331098" angle="-40.2941188"/>
            </iidm:busBreakerTopology>
            <iidm:load id="LOAD-79" loadType="UNDEFINED" p0="-1.7" q0="-4.6" bus="BUS-79" connectableBus="BUS-79"/>
        </iidm:voltageLevel>
    </iidm:substation>
    <iidm:substation id="SUB-80">
        <iidm:voltageLevel id="VL-80" nominalV="1.0" lowVoltageLimit="1.00444" highVoltageLimit="1.08936" topologyKind="BUS_BREAKER">
            <iidm:busBreakerTopology>
                <iidm:bus id="BUS-80" v="1.02331121" angle="-40.2982078"/>
            </iidm:busBreakerTopology>
            <iidm:load id="LOAD-80" loadType="UNDEFINED" p0="3.6" q0="-7.2" bus="BUS-80" connectableBus="BUS-80"/>
        </iidm:voltageLevel>
    </iidm:substation>
    <iidm:substation id="SUB-81">
        <iidm:voltageLevel id="VL-81" nominalV="1.0" lowVoltageLimit="0.888889" highVoltageLimit="1.08889" topologyKind="BUS_BREAKER">
            <iidm:busBreakerTopology>
                <iidm:bus id="BUS-81" v="1.03217693" angle="-41.4880591"/>
            </iidm:busBreakerTopology>
            <iidm:load id="LOAD-81" loadType="UNDEFINED" p0="35.4" q0="10.9" bus="BUS-81" connectableBus="BUS-81"/>
        </iidm:voltageLevel>
    </iidm:substation>
    <iidm:substation id="SUB-82">
        <iidm:voltageLevel id="VL-82" nominalV="1.0" lowVoltageLimit="0.95" highVoltageLimit="1.08124" topologyKind="BUS_BREAKER">
            <iidm:busBreakerTopology>
                <iidm:bus id="BUS-82" v="1.02481856" angle="-45.0281473"/>
            </iidm:busBreakerTopology>
            <iidm:generator id="GEN-82" energySource="OTHER" minP="5.06" maxP="25.3" voltageRegulatorOn="true" targetP="1.3" targetV="1.025" targetQ="0.0" bus="BUS-82" connectableBus="BUS-82">
                <iidm:minMaxReactiveLimits minQ="0.0" maxQ="0.0"/>
            </iidm:generator>
            <iidm:load id="LOAD-82" loadType="UNDEFINED" p0="15.1" q0="0.7" bus="BUS-82" connectableBus="BUS-82"/>
        </iidm:voltageLevel>
    </iidm:substation>
    <iidm:substation id="SUB-83">
        <iidm:voltageLevel id="VL-83" nominalV="1.0" lowVoltageLimit="0.888889" highVoltageLimit="1.08889" topologyKind="BUS_BREAKER">
            <iidm:busBreakerTopology>
                <iidm:bus id="BUS-83" v="1.01752839" angle="-46.2166908"/>
            </iidm:busBreakerTopology>
            <iidm:load id="LOAD-83" loadType="UNDEFINED" p0="57.4" q0="18.0" bus="BUS-83" connectableBus="BUS-83"/>
        </iidm:voltageLevel>
    </iidm:substation>
    <iidm:substation id="SUB-84">
        <iidm:voltageLevel id="VL-84" nominalV="1.0" lowVoltageLimit="1.0" highVoltageLimit="1.08889" topologyKind="BUS_BREAKER">
            <iidm:busBreakerTopology>
                <iidm:bus id="BUS-84" v="1.05114958" angle="-18.5175825"/>
            </iidm:busBreakerTopology>
            <iidm:load id="LOAD-84" loadType="UNDEFINED" p0="89.9" q0="-5.8" bus="BUS-84" connectableBus="BUS-84"/>
        </iidm:voltageLevel>
    </iidm:substation>
    <iidm:substation id="SUB-85">
        <iidm:voltageLevel id="VL-85" nominalV="1.0" lowVoltageLimit="1.0507" highVoltageLimit="1.08889" topologyKind="BUS_BREAKER">
            <iidm:busBreakerTopology>
                <iidm:bus id="BUS-85" v="1.02932206" angle="-16.3727754"/>
                <iidm:bus id="BUS-86" v="1.06749173" angle="-16.360036"/>
            </iidm:busBreakerTopology>
            <iidm:load id="LOAD-86" loadType="UNDEFINED" p0="239.8" q0="17.5" bus="BUS-86" connectableBus="BUS-86"/>
        </iidm:voltageLevel>
        <iidm:twoWindingsTransformer id="TWT-85-86" r="7.34E-6" x="4.5013999999999997E-4" g="0.0" b="0.0" ratedU1="0.956938" ratedU2="1.0" bus1="BUS-85" connectableBus1="BUS-85" voltageLevelId1="VL-85" bus2="BUS-86" connectableBus2="BUS-86" voltageLevelId2="VL-85">
            <iidm:apparentPowerLimits1 permanentLimit="593.0">
                <iidm:temporaryLimit name="RateB" acceptableDuration="1200" value="593.0"/>
                <iidm:temporaryLimit name="RateC" acceptableDuration="60" value="593.0"/>
            </iidm:apparentPowerLimits1>
            <iidm:apparentPowerLimits2 permanentLimit="593.0">
                <iidm:temporaryLimit name="RateB" acceptableDuration="1200" value="593.0"/>
                <iidm:temporaryLimit name="RateC" acceptableDuration="60" value="593.0"/>
            </iidm:apparentPowerLimits2>
        </iidm:twoWindingsTransformer>
        <iidm:twoWindingsTransformer id="TWT-85-86#0" r="7.27E-6" x="4.4668E-4" g="0.0" b="0.0" ratedU1="0.956938" ratedU2="1.0" bus1="BUS-85" connectableBus1="BUS-85" voltageLevelId1="VL-85" bus2="BUS-86" connectableBus2="BUS-86" voltageLevelId2="VL-85">
            <iidm:apparentPowerLimits1 permanentLimit="593.0">
                <iidm:temporaryLimit name="RateB" acceptableDuration="1200" value="593.0"/>
                <iidm:temporaryLimit name="RateC" acceptableDuration="60" value="593.0"/>
            </iidm:apparentPowerLimits1>
            <iidm:apparentPowerLimits2 permanentLimit="593.0">
                <iidm:temporaryLimit name="RateB" acceptableDuration="1200" value="593.0"/>
                <iidm:temporaryLimit name="RateC" acceptableDuration="60" value="593.0"/>
            </iidm:apparentPowerLimits2>
        </iidm:twoWindingsTransformer>
    </iidm:substation>
    <iidm:substation id="SUB-87">
        <iidm:voltageLevel id="VL-87" nominalV="1.0" lowVoltageLimit="1.0" highVoltageLimit="1.08889" topologyKind="BUS_BREAKER">
            <iidm:busBreakerTopology>
                <iidm:bus id="BUS-87" v="1.04562791" angle="-13.9985911"/>
            </iidm:busBreakerTopology>
            <iidm:load id="LOAD-87" loadType="UNDEFINED" p0="35.5" q0="16.0" bus="BUS-87" connectableBus="BUS-87"/>
        </iidm:voltageLevel>
    </iidm:substation>
    <iidm:substation id="SUB-88">
        <iidm:voltageLevel id="VL-88" nominalV="1.0" lowVoltageLimit="1.0" highVoltageLimit="1.08889" topologyKind="BUS_BREAKER">
            <iidm:busBreakerTopology>
                <iidm:bus id="BUS-88" v="1.05684667" angle="-17.6200243"/>
            </iidm:busBreakerTopology>
...